WindCrete spar floater for the 15MW EIA Reference Wind Turbine OpenFAST model.
