------- HydroDyn v2.03.* Input File --------------------------------------------
WindCrete Gran Canaria for the IEA 15 MW Offshore Reference Turbine, Monopile configuration
True            Echo           - Echo the input file data (flag)
---------------------- ENVIRONMENTAL CONDITIONS --------------------------------
          1025   WtrDens        - Water density (kg/m^3)
           200   WtrDpth        - Water depth (meters)
             0   MSL2SWL        - Offset between still-water level and mean sea level (meters) [positive upward; unused when WaveMod = 6; must be zero if PotMod=1 or 2]
---------------------- WAVES ---------------------------------------------------
             0   WaveMod        - Incident wave kinematics model {0: none=still water, 1: regular (periodic), 1P#: regular with user-specified phase, 2: JONSWAP/Pierson-Moskowitz spectrum (irregular), 3: White noise spectrum (irregular), 4: user-defined spectrum from routine UserWaveSpctrm (irregular), 5: Externally generated wave-elevation time series, 6: Externally generated full wave-kinematics time series [option 6 is invalid for PotMod/=0]} (switch)
             0   WaveStMod      - Model for stretching incident wave kinematics to instantaneous free surface {0: none=no stretching, 1: vertical stretching, 2: extrapolation stretching, 3: Wheeler stretching} (switch) [unused when WaveMod=0 or when PotMod/=0]
          3630   WaveTMax       - Analysis time for incident wave calculations (sec) [unused when WaveMod=0; determines WaveDOmega=2Pi/WaveTMax in the IFFT]
          0.25   WaveDT         - Time step for incident wave calculations     (sec) [unused when WaveMod=0; 0.1<=WaveDT<=1.0 recommended; determines WaveOmegaMax=Pi/WaveDT in the IFFT]
 3.35 WaveHs         - Significant wave height of incident waves   (meters)[used only when WaveMod=1, 2, or 3] 
 9.0 WaveTp         - Peak-spectral period of incident waves       (sec) [used only when WaveMod=1 or 2]  
"DEFAULT"        WavePkShp      - Peak-shape parameter of incident wave spectrum (-) or DEFAULT (string) [used only when WaveMod=2; use 1.0 for Pierson-Moskowitz]
       0.15708   WvLowCOff      - Low  cut-off frequency or lower frequency limit of the wave spectrum beyond which the wave spectrum is zeroed (rad/s) [unused when WaveMod=0, 1, or 6]
           3.2   WvHiCOff       - High cut-off frequency or upper frequency limit of the wave spectrum beyond which the wave spectrum is zeroed (rad/s) [unused when WaveMod=0, 1, or 6]
 0 WaveDir        - Incident wave propagation heading direction                         (degrees) [unused when WaveMod=0 or 6]  
             0   WaveDirMod     - Directional spreading function {0: none, 1: COS2S}                  (-)       [only used when WaveMod=2,3, or 4]
             1   WaveDirSpread  - Wave direction spreading coefficient ( > 0 )                        (-)       [only used when WaveMod=2,3, or 4 and WaveDirMod=1]
             1   WaveNDir       - Number of wave directions                                           (-)       [only used when WaveMod=2,3, or 4 and WaveDirMod=1; odd number only]
            90   WaveDirRange   - Range of wave directions (full range: WaveDir +/- 1/2*WaveDirRange) (degrees) [only used when WaveMod=2,3,or 4 and WaveDirMod=1]
 1940075539 WaveSeed(1)    - First  random seed of incident waves [-2147483648 to 2147483647]    (-)       [unused when WaveMod=0, 5, or 6]  
 -1002161546 WaveSeed(2)    - Second  random seed of incident waves [-2147483648 to 2147483647]    (-)       [unused when WaveMod=0, 5, or 6]  
TRUE             WaveNDAmp      - Flag for normally distributed amplitudes                            (flag)    [only used when WaveMod=2, 3, or 4]
""               WvKinFile      - Root name of externally generated wave data file(s)        (quoted string)    [used only when WaveMod=5 or 6]
             1   NWaveElev      - Number of points where the incident wave elevations can be computed (-)       [maximum of 9 output locations]
             0   WaveElevxi     - List of xi-coordinates for points where the incident wave elevations can be output (meters) [NWaveElev points, separated by commas or white space; usused if NWaveElev = 0]
             0   WaveElevyi     - List of yi-coordinates for points where the incident wave elevations can be output (meters) [NWaveElev points, separated by commas or white space; usused if NWaveElev = 0]
---------------------- 2ND-ORDER WAVES ----------------------------------------- [unused with WaveMod=0 or 6]
False            WvDiffQTF      - Full difference-frequency 2nd-order wave kinematics (flag)
False            WvSumQTF       - Full summation-frequency  2nd-order wave kinematics (flag)
           0.1   WvLowCOffD     - Low  frequency cutoff used in the difference-frequencies (rad/s) [Only used with a difference-frequency method]
           2.5   WvHiCOffD      - High frequency cutoff used in the difference-frequencies (rad/s) [Only used with a difference-frequency method]
      0.314159   WvLowCOffS     - Low  frequency cutoff used in the summation-frequencies  (rad/s) [Only used with a summation-frequency  method]
           3.2   WvHiCOffS      - High frequency cutoff used in the summation-frequencies  (rad/s) [Only used with a summation-frequency  method]
---------------------- CURRENT ------------------------------------------------- [unused with WaveMod=6]
             0   CurrMod        - Current profile model {0: none=no current, 1: standard, 2: user-defined from routine UserCurrent} (switch)
             0   CurrSSV0       - Sub-surface current velocity at still water level  (m/s) [used only when CurrMod=1]
"DEFAULT"        CurrSSDir      - Sub-surface current heading direction (degrees) or DEFAULT (string) [used only when CurrMod=1]
            20   CurrNSRef      - Near-surface current reference depth            (meters) [used only when CurrMod=1]
             0   CurrNSV0       - Near-surface current velocity at still water level (m/s) [used only when CurrMod=1]
             0   CurrNSDir      - Near-surface current heading direction         (degrees) [used only when CurrMod=1]
             0   CurrDIV        - Depth-independent current velocity                 (m/s) [used only when CurrMod=1]
             0   CurrDIDir      - Depth-independent current heading direction    (degrees) [used only when CurrMod=1]
---------------------- FLOATING PLATFORM --------------------------------------- [unused with WaveMod=6]
             0   PotMod         - Potential-flow model {0: none=no potential flow, 1: frequency-to-time-domain transforms based on WAMIT output, 2: fluid-impulse theory (FIT)} (switch)
"HydroData\windcrete15MW"          PotFile        - Root name of potential-flow model data; WAMIT output files containing the linear, nondimensionalized, hydrostatic restoring matrix (.hst), frequency-dependent hydrodynamic added mass matrix and damping matrix (.1), and frequency- and direction-dependent wave excitation force vector per unit wave amplitude (.3) (quoted string) [MAKE SURE THE FREQUENCIES INHERENT IN THESE WAMIT FILES SPAN THE PHYSICALLY-SIGNIFICANT RANGE OF FREQUENCIES FOR THE GIVEN PLATFORM; THEY MUST CONTAIN THE ZERO- AND INFINITE-FREQUENCY LIMITS!]
             1   WAMITULEN      - Characteristic body length scale used to redimensionalize WAMIT output (meters) [only used when PotMod=1]
     0   PtfmVol0       - Displaced volume of water when the platform is in its undisplaced position (m^3) [only used when PotMod=1; USE THE SAME VALUE COMPUTED BY WAMIT AS OUTPUT IN THE .OUT FILE!]
             0   PtfmCOBxt      - The xt offset of the center of buoyancy (COB) from the platform reference point (meters)  [only used when PotMod=1]
             0   PtfmCOByt      - The yt offset of the center of buoyancy (COB) from the platform reference point (meters)  [only used when PotMod=1]
             1   RdtnMod        - Radiation memory-effect model {0: no memory-effect calculation, 1: convolution, 2: state-space} (switch) [only used when PotMod=1; STATE-SPACE REQUIRES *.ss INPUT FILE]
            60   RdtnTMax       - Analysis time for wave radiation kernel calculations (sec) [only used when PotMod=1; determines RdtnDOmega=Pi/RdtnTMax in the cosine transform; MAKE SURE THIS IS LONG ENOUGH FOR THE RADIATION IMPULSE RESPONSE FUNCTIONS TO DECAY TO NEAR-ZERO FOR THE GIVEN PLATFORM!]
         0.005   RdtnDT         - Time step for wave radiation kernel calculations (sec) [only used when PotMod=1; DT<=RdtnDT<=0.1 recommended; determines RdtnOmegaMax=Pi/RdtnDT in the cosine transform]
---------------------- 2ND-ORDER FLOATING PLATFORM FORCES ---------------------- [unused with WaveMod=0 or 6, or PotMod=0 or 2]
             0   MnDrift        - Mean-drift 2nd-order forces computed                                       {0: None; [7, 8, 9, 10, 11, or 12]: WAMIT file to use} [Only one of MnDrift, NewmanApp, or DiffQTF can be non-zero]
             0   NewmanApp      - Mean- and slow-drift 2nd-order forces computed with Newman's approximation {0: None; [7, 8, 9, 10, 11, or 12]: WAMIT file to use} [Only one of MnDrift, NewmanApp, or DiffQTF can be non-zero. Used only when WaveDirMod=0]
             0   DiffQTF        - Full difference-frequency 2nd-order forces computed with full QTF          {0: None; [10, 11, or 12]: WAMIT file to use}          [Only one of MnDrift, NewmanApp, or DiffQTF can be non-zero]
             0   SumQTF         - Full summation -frequency 2nd-order forces computed with full QTF          {0: None; [10, 11, or 12]: WAMIT file to use}
---------------------- FLOATING PLATFORM FORCE FLAGS  -------------------------- [unused with WaveMod=6]
True             PtfmSgF        - Platform horizontal surge translation force (flag) or DEFAULT
True             PtfmSwF        - Platform horizontal sway translation force (flag) or DEFAULT
True             PtfmHvF        - Platform vertical heave translation force (flag) or DEFAULT
True             PtfmRF         - Platform roll tilt rotation force (flag) or DEFAULT
True             PtfmPF         - Platform pitch tilt rotation force (flag) or DEFAULT
True             PtfmYF         - Platform yaw rotation force (flag) or DEFAULT
---------------------- PLATFORM ADDITIONAL STIFFNESS AND DAMPING  --------------
             0             0             0             0             0             0   AddF0    - Additional preload (N, N-m)
             0             0             0             0             0             0   AddCLin  - Additional linear stiffness (N/m, N/rad, N-m/m, N-m/rad)
             0             0             0             0             0             0
             0             0             1.376e+06             0             0             0
             0             0             0             -3.149e+10             0             0
             0             0             0             0             -3.149e+10             0
             0             0             0             0             0             0
             0             0             0             0             0             0   AddBLin  - Additional linear damping(N/(m/s), N/(rad/s), N-m/(m/s), N-m/(rad/s))
             0             0             0             0             0             0
             0             0             0             0             0             0
             0             0             0             0             0             0
             0             0             0             0             0             0
             0             0             0             0             0             0
             0             0             0             0             0             0   AddBQuad - Additional quadratic drag(N/(m/s)^2, N/(rad/s)^2, N-m(m/s)^2, N-m/(rad/s)^2)
             0             0             0             0             0             0
             0             0             0             0             0             0
             0             0             0             0             0             0
             0             0             0             0             0             0
             0             0             0             0             0             0
---------------------- AXIAL COEFFICIENTS --------------------------------------
             2   NAxCoef        - Number of axial coefficients (-)
AxCoefID  AxCd     AxCa     AxCp
   (-)    (-)      (-)      (-)
    1     0.00     0.00     1.00
    2     1.30     1.00     1.00
---------------------- MEMBER JOINTS -------------------------------------------
             5   NJoints        - Number of joints (-)   [must be exactly 0 or at least 2]
JointID   Jointxi     Jointyi     Jointzi  JointAxID   JointOvrlp   [JointOvrlp= 0: do nothing at joint, 1: eliminate overlaps by calculating super member]
   (-)     (m)         (m)         (m)        (-)       (switch)
    1     0.00000     0.00000  -155.00000      2            0
    2     0.00000     0.00000  -145.7000      1            0
    3     0.00000     0.00000   -10.00000      1            0
    4     0.00000     0.00000     0.00000      1            0
    5     0.00000     0.00000    15.00000      1            0
---------------------- MEMBER CROSS-SECTION PROPERTIES -------------------------
             4   NPropSets      - Number of member property sets (-)
PropSetID    PropD         PropThck
   (-)        (m)            (m)
    1        15.1868         0.5000
    2        18.60           0.5000
    3        13.2           0.5000
    4        12.42           0.4000
---------------------- SIMPLE HYDRODYNAMIC COEFFICIENTS (model 1) --------------
     SimplCd    SimplCdMG    SimplCa    SimplCaMG    SimplCp    SimplCpMG   SimplAxCa  SimplAxCaMG  SimplAxCp   SimplAxCpMG
       (-)         (-)         (-)         (-)         (-)         (-)         (-)         (-)         (-)         (-)
       0.70        0.00        1.00        0.00        1.00        0.00        0.00        0.00        0.00        0.00 
---------------------- DEPTH-BASED HYDRODYNAMIC COEFFICIENTS (model 2) ---------
             0   NCoefDpth       - Number of depth-dependent coefficients (-)
Dpth      DpthCd   DpthCdMG   DpthCa   DpthCaMG       DpthCp   DpthCpMG   DpthAxCa   DpthAxCaMG       DpthAxCp   DpthAxCpMG
(m)       (-)      (-)        (-)      (-)            (-)      (-)          (-)        (-)              (-)         (-)
---------------------- MEMBER-BASED HYDRODYNAMIC COEFFICIENTS (model 3) --------
             4   NCoefMembers       - Number of member-based coefficients (-)
MemberID    MemberCd1     MemberCd2    MemberCdMG1   MemberCdMG2    MemberCa1     MemberCa2    MemberCaMG1   MemberCaMG2    MemberCp1     MemberCp2    MemberCpMG1   MemberCpMG2   MemberAxCa1   MemberAxCa2  MemberAxCaMG1 MemberAxCaMG2  MemberAxCp1  MemberAxCp2   MemberAxCpMG1   MemberAxCpMG2
   (-)         (-)           (-)           (-)           (-)           (-)           (-)           (-)           (-)           (-)           (-)           (-)           (-)           (-)           (-)           (-)           (-)           (-)           (-)           (-)           (-)
    1         1.0           1.0           0.00         0.00           1.0          1.0          0.00          0.00          1.00          1.00          0.00          0.00          0.00          0.00          0.00          0.00         0.00          0.00          0.00          0.00 
    2         1.0           1.0           0.00         0.00           1.0          1.0          0.00          0.00          1.00          1.00          0.00          0.00          0.00          0.00          0.00          0.00         0.00          0.00          0.00          0.00 
    3         1.0           1.0           0.00         0.00           1.0          1.0          0.00          0.00          1.00          1.00          0.00          0.00          1.00          1.00          0.00          0.00         0.00          0.00          0.00          0.00 
    4         1.0           1.0           0.00         0.00           1.0          1.0          0.00          0.00          1.00          1.00          0.00          0.00          1.00          1.00          0.00          0.00         0.00          0.00          0.00          0.00 
-------------------- MEMBERS -------------------------------------------------
             4   NMembers       - Number of members (-)
MemberID  MJointID1  MJointID2  MPropSetID1  MPropSetID2  MDivSize   MCoefMod  PropPot   [MCoefMod=1: use simple coeff table, 2: use depth-based coeff table, 3: use member-based coeff table] [ PropPot/=0 if member is modeled with potential-flow theory]
  (-)        (-)        (-)         (-)          (-)        (m)      (switch)   (flag)
    1         1          2           1            1         0.5000      3        FALSE
    2         2          3           2            2         0.5000      3        FALSE
    3         3          4           2            3         0.5000      3        FALSE
    4         4          5           3            4         0.5000      3        FALSE
---------------------- FILLED MEMBERS ------------------------------------------
             0   NFillGroups     - Number of filled member groups (-) [If FillDens = DEFAULT, then FillDens = WtrDens; FillFSLoc is related to MSL2SWL]
FillNumM FillMList             FillFSLoc     FillDens
(-)      (-)                   (m)           (kg/m^3)
---------------------- MARINE GROWTH -------------------------------------------
             0   NMGDepths      - Number of marine-growth depths specified (-)
MGDpth     MGThck       MGDens
(m)        (m)         (kg/m^3)
---------------------- MEMBER OUTPUT LIST --------------------------------------
             4   NMOutputs      - Number of member outputs (-) [must be < 10]
MemberID   NOutLoc    NodeLocs [NOutLoc < 10; node locations are normalized distance from the start of the member, and must be >=0 and <= 1] [unused if NMOutputs=0]
  (-)        (-)        (-)
  1           3       0 0.5 1
  2           9       0 0.125 0.25 0.375 0.5 0.625 0.75 0.875 1
  3           4       0 0.333333 0.6666667 1
  4           3       0 0.5 1
---------------------- JOINT OUTPUT LIST ---------------------------------------
             5   NJOutputs      - Number of joint outputs [Must be < 10]
   1 2 3 4 5           JOutLst        - List of JointIDs which are to be output (-)[unused if NJOutputs=0]
---------------------- OUTPUT --------------------------------------------------
True             HDSum          - Output a summary file [flag]
False            OutAll         - Output all user-specified member and joint loads (only at each member end, not interior locations) [flag]
             2   OutSwtch       - Output requested channels to: [1=Hydrodyn.out, 2=GlueCode.out, 3=both files]
"ES11.4e2"       OutFmt         - Output format for numerical results (quoted string) [not checked for validity!]
"A11"            OutSFmt        - Output format for header strings (quoted string) [not checked for validity!]
---------------------- OUTPUT CHANNELS -----------------------------------------
"Wave1Elev"               - Wave elevation at the WAMIT reference point (0,0)
"M1N1FDxi"
"M1N2FDxi"
"M1N3FDxi"
"M2N1FDxi"
"M2N2FDxi"
"M2N3FDxi"
"M2N4FDxi"
"M2N5FDxi"
"M2N6FDxi"
"M2N7FDxi"
"M2N8FDxi"
"M2N9FDxi"
"M3N1FDxi"
"M3N2FDxi"
"M3N3FDxi"
"M3N4FDxi"
"M4N1FDxi"
"M4N2FDxi"
"M4N3FDxi"
"M1N1FDyi"
"M1N2FDyi"
"M1N3FDyi"
"M2N1FDyi"
"M2N2FDyi"
"M2N3FDyi"
"M2N4FDyi"
"M2N5FDyi"
"M2N6FDyi"
"M2N7FDyi"
"M2N8FDyi"
"M2N9FDyi"
"M3N1FDyi"
"M3N2FDyi"
"M3N3FDyi"
"M3N4FDyi"
"M4N1FDyi"
"M4N2FDyi"
"M4N3FDyi"
"M1N1FDzi"
"M1N2FDzi"
"M1N3FDzi"
"M2N1FDzi"
"M2N2FDzi"
"M2N3FDzi"
"M2N4FDzi"
"M2N5FDzi"
"M2N6FDzi"
"M2N7FDzi"
"M2N8FDzi"
"M2N9FDzi"
"M3N1FDzi"
"M3N2FDzi"
"M3N3FDzi"
"M3N4FDzi"
"M4N1FDzi"
"M4N2FDzi"
"M4N3FDzi"
"M1N1FIxi"
"M1N2FIxi"
"M1N3FIxi"
"M2N1FIxi"
"M2N2FIxi"
"M2N3FIxi"
"M2N4FIxi"
"M2N5FIxi"
"M2N6FIxi"
"M2N7FIxi"
"M2N8FIxi"
"M2N9FIxi"
"M3N1FIxi"
"M3N2FIxi"
"M3N3FIxi"
"M3N4FIxi"
"M4N1FIxi"
"M4N2FIxi"
"M4N3FIxi"
"M1N1FIyi"
"M1N2FIyi"
"M1N3FIyi"
"M2N1FIyi"
"M2N2FIyi"
"M2N3FIyi"
"M2N4FIyi"
"M2N5FIyi"
"M2N6FIyi"
"M2N7FIyi"
"M2N8FIyi"
"M2N9FIyi"
"M3N1FIyi"
"M3N2FIyi"
"M3N3FIyi"
"M3N4FIyi"
"M4N1FIyi"
"M4N2FIyi"
"M4N3FIyi"
"M1N1FIzi"
"M1N2FIzi"
"M1N3FIzi"
"M2N1FIzi"
"M2N2FIzi"
"M2N3FIzi"
"M2N4FIzi"
"M2N5FIzi"
"M2N6FIzi"
"M2N7FIzi"
"M2N8FIzi"
"M2N9FIzi"
"M3N1FIzi"
"M3N2FIzi"
"M3N3FIzi"
"M3N4FIzi"
"M4N1FIzi"
"M4N2FIzi"
"M4N3FIzi"
"M1N1FBxi"
"M1N2FBxi"
"M1N3FBxi"
"M2N1FBxi"
"M2N2FBxi"
"M2N3FBxi"
"M2N4FBxi"
"M2N5FBxi"
"M2N6FBxi"
"M2N7FBxi"
"M2N8FBxi"
"M2N9FBxi"
"M3N1FBxi"
"M3N2FBxi"
"M3N3FBxi"
"M3N4FBxi"
"M4N1FBxi"
"M4N2FBxi"
"M4N3FBxi"
"M1N1FByi"
"M1N2FByi"
"M1N3FByi"
"M2N1FByi"
"M2N2FByi"
"M2N3FByi"
"M2N4FByi"
"M2N5FByi"
"M2N6FByi"
"M2N7FByi"
"M2N8FByi"
"M2N9FByi"
"M3N1FByi"
"M3N2FByi"
"M3N3FByi"
"M3N4FByi"
"M4N1FByi"
"M4N2FByi"
"M4N3FByi"
"M1N1FBzi"
"M1N2FBzi"
"M1N3FBzi"
"M2N1FBzi"
"M2N2FBzi"
"M2N3FBzi"
"M2N4FBzi"
"M2N5FBzi"
"M2N6FBzi"
"M2N7FBzi"
"M2N8FBzi"
"M2N9FBzi"
"M3N1FBzi"
"M3N2FBzi"
"M3N3FBzi"
"M3N4FBzi"
"M4N1FBzi"
"M4N2FBzi"
"M4N3FBzi"
"M1N1MBxi"
"M1N2MBxi"
"M1N3MBxi"
"M2N1MBxi"
"M2N2MBxi"
"M2N3MBxi"
"M2N4MBxi"
"M2N5MBxi"
"M2N6MBxi"
"M2N7MBxi"
"M2N8MBxi"
"M2N9MBxi"
"M3N1MBxi"
"M3N2MBxi"
"M3N3MBxi"
"M3N4MBxi"
"M4N1MBxi"
"M4N2MBxi"
"M4N3MBxi"
"M1N1MByi"
"M1N2MByi"
"M1N3MByi"
"M2N1MByi"
"M2N2MByi"
"M2N3MByi"
"M2N4MByi"
"M2N5MByi"
"M2N6MByi"
"M2N7MByi"
"M2N8MByi"
"M2N9MByi"
"M3N1MByi"
"M3N2MByi"
"M3N3MByi"
"M3N4MByi"
"M4N1MByi"
"M4N2MByi"
"M4N3MByi"
"M1N1MBzi"
"M1N2MBzi"
"M1N3MBzi"
"M2N1MBzi"
"M2N2MBzi"
"M2N3MBzi"
"M2N4MBzi"
"M2N5MBzi"
"M2N6MBzi"
"M2N7MBzi"
"M2N8MBzi"
"M2N9MBzi"
"M3N1MBzi"
"M3N2MBzi"
"M3N3MBzi"
"M3N4MBzi"
"M4N1MBzi"
"M4N2MBzi"
"M4N3MBzi"
"M1N1FBFxi"
"M1N2FBFxi"
"M1N3FBFxi"
"M2N1FBFxi"
"M2N2FBFxi"
"M2N3FBFxi"
"M2N4FBFxi"
"M2N5FBFxi"
"M2N6FBFxi"
"M2N7FBFxi"
"M2N8FBFxi"
"M2N9FBFxi"
"M3N1FBFxi"
"M3N2FBFxi"
"M3N3FBFxi"
"M3N4FBFxi"
"M4N1FBFxi"
"M4N2FBFxi"
"M4N3FBFxi"
"M1N1FBFyi"
"M1N2FBFyi"
"M1N3FBFyi"
"M2N1FBFyi"
"M2N2FBFyi"
"M2N3FBFyi"
"M2N4FBFyi"
"M2N5FBFyi"
"M2N6FBFyi"
"M2N7FBFyi"
"M2N8FBFyi"
"M2N9FBFyi"
"M3N1FBFyi"
"M3N2FBFyi"
"M3N3FBFyi"
"M3N4FBFyi"
"M4N1FBFyi"
"M4N2FBFyi"
"M4N3FBFyi"
"M1N1FBFzi"
"M1N2FBFzi"
"M1N3FBFzi"
"M2N1FBFzi"
"M2N2FBFzi"
"M2N3FBFzi"
"M2N4FBFzi"
"M2N5FBFzi"
"M2N6FBFzi"
"M2N7FBFzi"
"M2N8FBFzi"
"M2N9FBFzi"
"M3N1FBFzi"
"M3N2FBFzi"
"M3N3FBFzi"
"M3N4FBFzi"
"M4N1FBFzi"
"M4N2FBFzi"
"M4N3FBFzi"
"M1N1MBFxi"
"M1N2MBFxi"
"M1N3MBFxi"
"M2N1MBFxi"
"M2N2MBFxi"
"M2N3MBFxi"
"M2N4MBFxi"
"M2N5MBFxi"
"M2N6MBFxi"
"M2N7MBFxi"
"M2N8MBFxi"
"M2N9MBFxi"
"M3N1MBFxi"
"M3N2MBFxi"
"M3N3MBFxi"
"M3N4MBFxi"
"M4N1MBFxi"
"M4N2MBFxi"
"M4N3MBFxi"
"M1N1MBFyi"
"M1N2MBFyi"
"M1N3MBFyi"
"M2N1MBFyi"
"M2N2MBFyi"
"M2N3MBFyi"
"M2N4MBFyi"
"M2N5MBFyi"
"M2N6MBFyi"
"M2N7MBFyi"
"M2N8MBFyi"
"M2N9MBFyi"
"M3N1MBFyi"
"M3N2MBFyi"
"M3N3MBFyi"
"M3N4MBFyi"
"M4N1MBFyi"
"M4N2MBFyi"
"M4N3MBFyi"
"M1N1MBFzi"
"M1N2MBFzi"
"M1N3MBFzi"
"M2N1MBFzi"
"M2N2MBFzi"
"M2N3MBFzi"
"M2N4MBFzi"
"M2N5MBFzi"
"M2N6MBFzi"
"M2N7MBFzi"
"M2N8MBFzi"
"M2N9MBFzi"
"M3N1MBFzi"
"M3N2MBFzi"
"M3N3MBFzi"
"M3N4MBFzi"
"M4N1MBFzi"
"M4N2MBFzi"
"M4N3MBFzi"
"M1N1FMGxi"
"M1N2FMGxi"
"M1N3FMGxi"
"M2N1FMGxi"
"M2N2FMGxi"
"M2N3FMGxi"
"M2N4FMGxi"
"M2N5FMGxi"
"M2N6FMGxi"
"M2N7FMGxi"
"M2N8FMGxi"
"M2N9FMGxi"
"M3N1FMGxi"
"M3N2FMGxi"
"M3N3FMGxi"
"M3N4FMGxi"
"M4N1FMGxi"
"M4N2FMGxi"
"M4N3FMGxi"
"M1N1FMGyi"
"M1N2FMGyi"
"M1N3FMGyi"
"M2N1FMGyi"
"M2N2FMGyi"
"M2N3FMGyi"
"M2N4FMGyi"
"M2N5FMGyi"
"M2N6FMGyi"
"M2N7FMGyi"
"M2N8FMGyi"
"M2N9FMGyi"
"M3N1FMGyi"
"M3N2FMGyi"
"M3N3FMGyi"
"M3N4FMGyi"
"M4N1FMGyi"
"M4N2FMGyi"
"M4N3FMGyi"
"M1N1FMGzi"
"M1N2FMGzi"
"M1N3FMGzi"
"M2N1FMGzi"
"M2N2FMGzi"
"M2N3FMGzi"
"M2N4FMGzi"
"M2N5FMGzi"
"M2N6FMGzi"
"M2N7FMGzi"
"M2N8FMGzi"
"M2N9FMGzi"
"M3N1FMGzi"
"M3N2FMGzi"
"M3N3FMGzi"
"M3N4FMGzi"
"M4N1FMGzi"
"M4N2FMGzi"
"M4N3FMGzi"
"M1N1FAMxi"
"M1N2FAMxi"
"M1N3FAMxi"
"M2N1FAMxi"
"M2N2FAMxi"
"M2N3FAMxi"
"M2N4FAMxi"
"M2N5FAMxi"
"M2N6FAMxi"
"M2N7FAMxi"
"M2N8FAMxi"
"M2N9FAMxi"
"M3N1FAMxi"
"M3N2FAMxi"
"M3N3FAMxi"
"M3N4FAMxi"
"M4N1FAMxi"
"M4N2FAMxi"
"M4N3FAMxi"
"M1N1FAMyi"
"M1N2FAMyi"
"M1N3FAMyi"
"M2N1FAMyi"
"M2N2FAMyi"
"M2N3FAMyi"
"M2N4FAMyi"
"M2N5FAMyi"
"M2N6FAMyi"
"M2N7FAMyi"
"M2N8FAMyi"
"M2N9FAMyi"
"M3N1FAMyi"
"M3N2FAMyi"
"M3N3FAMyi"
"M3N4FAMyi"
"M4N1FAMyi"
"M4N2FAMyi"
"M4N3FAMyi"
"M1N1FAMzi"
"M1N2FAMzi"
"M1N3FAMzi"
"M2N1FAMzi"
"M2N2FAMzi"
"M2N3FAMzi"
"M2N4FAMzi"
"M2N5FAMzi"
"M2N6FAMzi"
"M2N7FAMzi"
"M2N8FAMzi"
"M2N9FAMzi"
"M3N1FAMzi"
"M3N2FAMzi"
"M3N3FAMzi"
"M3N4FAMzi"
"M4N1FAMzi"
"M4N2FAMzi"
"M4N3FAMzi"
"M1N1FAFxi"
"M1N2FAFxi"
"M1N3FAFxi"
"M2N1FAFxi"
"M2N2FAFxi"
"M2N3FAFxi"
"M2N4FAFxi"
"M2N5FAFxi"
"M2N6FAFxi"
"M2N7FAFxi"
"M2N8FAFxi"
"M2N9FAFxi"
"M3N1FAFxi"
"M3N2FAFxi"
"M3N3FAFxi"
"M3N4FAFxi"
"M4N1FAFxi"
"M4N2FAFxi"
"M4N3FAFxi"
"M1N1FAFyi"
"M1N2FAFyi"
"M1N3FAFyi"
"M2N1FAFyi"
"M2N2FAFyi"
"M2N3FAFyi"
"M2N4FAFyi"
"M2N5FAFyi"
"M2N6FAFyi"
"M2N7FAFyi"
"M2N8FAFyi"
"M2N9FAFyi"
"M3N1FAFyi"
"M3N2FAFyi"
"M3N3FAFyi"
"M3N4FAFyi"
"M4N1FAFyi"
"M4N2FAFyi"
"M4N3FAFyi"
"M1N1FAFzi"
"M1N2FAFzi"
"M1N3FAFzi"
"M2N1FAFzi"
"M2N2FAFzi"
"M2N3FAFzi"
"M2N4FAFzi"
"M2N5FAFzi"
"M2N6FAFzi"
"M2N7FAFzi"
"M2N8FAFzi"
"M2N9FAFzi"
"M3N1FAFzi"
"M3N2FAFzi"
"M3N3FAFzi"
"M3N4FAFzi"
"M4N1FAFzi"
"M4N2FAFzi"
"M4N3FAFzi"
"M1N1FAxi"
"M1N2FAxi"
"M1N3FAxi"
"M2N1FAxi"
"M2N2FAxi"
"M2N3FAxi"
"M2N4FAxi"
"M2N5FAxi"
"M2N6FAxi"
"M2N7FAxi"
"M2N8FAxi"
"M2N9FAxi"
"M3N1FAxi"
"M3N2FAxi"
"M3N3FAxi"
"M3N4FAxi"
"M4N1FAxi"
"M4N2FAxi"
"M4N3FAxi"
"M1N1FAyi"
"M1N2FAyi"
"M1N3FAyi"
"M2N1FAyi"
"M2N2FAyi"
"M2N3FAyi"
"M2N4FAyi"
"M2N5FAyi"
"M2N6FAyi"
"M2N7FAyi"
"M2N8FAyi"
"M2N9FAyi"
"M3N1FAyi"
"M3N2FAyi"
"M3N3FAyi"
"M3N4FAyi"
"M4N1FAyi"
"M4N2FAyi"
"M4N3FAyi"
"M1N1FAzi"
"M1N2FAzi"
"M1N3FAzi"
"M2N1FAzi"
"M2N2FAzi"
"M2N3FAzi"
"M2N4FAzi"
"M2N5FAzi"
"M2N6FAzi"
"M2N7FAzi"
"M2N8FAzi"
"M2N9FAzi"
"M3N1FAzi"
"M3N2FAzi"
"M3N3FAzi"
"M3N4FAzi"
"M4N1FAzi"
"M4N2FAzi"
"M4N3FAzi"
"HydroFxi"
"HydroFyi"
"HydroFzi"
"HydroMxi"
"HydroMyi"
"HydroMzi"
"J1FDxi"
"J1FDyi"
"J1FDzi"
"J1FIxi" 
"J1FIyi"
"J1FIzi"
"J1FBxi"
"J1FByi"
"J1FBzi"
"J1MBxi"
"J1MByi"
"J1MBzi"
"J1FBFxi"
"J1FBFyi"
"J1FBFzi"
"J1MBFxi"
"J1MBFyi"
"J1MBFzi"
"J1FAMxi"
"J1FAMyi"
"J1FAMzi"
"J2FDxi"
"J2FDyi"
"J2FDzi"
"J2FIxi" 
"J2FIyi"
"J2FIzi"
"J2FBxi"
"J2FByi"
"J2FBzi"
"J2MBxi"
"J2MByi"
"J2MBzi"
"J2FBFxi"
"J2FBFyi"
"J2FBFzi"
"J2MBFxi"
"J2MBFyi"
"J2MBFzi"
"J2FAMxi"
"J2FAMyi"
"J2FAMzi"
"J3FDxi"
"J3FDyi"
"J3FDzi"
"J3FIxi" 
"J3FIyi"
"J3FIzi"
"J3FBxi"
"J3FByi"
"J3FBzi"
"J3MBxi"
"J3MByi"
"J3MBzi"
"J3FBFxi"
"J3FBFyi"
"J3FBFzi"
"J3MBFxi"
"J3MBFyi"
"J3MBFzi"
"J3FAMxi"
"J3FAMyi"
"J3FAMzi"
"J4FDxi"
"J4FDyi"
"J4FDzi"
"J4FIxi" 
"J4FIyi"
"J4FIzi"
"J4FBxi"
"J4FByi"
"J4FBzi"
"J4MBxi"
"J4MByi"
"J4MBzi"
"J4FBFxi"
"J4FBFyi"
"J4FBFzi"
"J4MBFxi"
"J4MBFyi"
"J4MBFzi"
"J4FAMxi"
"J4FAMyi"
"J4FAMzi"
"J5FDxi"
"J5FDyi"
"J5FDzi"
"J5FIxi" 
"J5FIyi"
"J5FIzi"
"J5FBxi"
"J5FByi"
"J5FBzi"
"J5MBxi"
"J5MByi"
"J5MBzi"
"J5FBFxi"
"J5FBFyi"
"J5FBFzi"
"J5MBFxi"
"J5MBFyi"
"J5MBFzi"
"J5FAMxi"
"J5FAMyi"
"J5FAMzi"
"AddFxi"
"AddFyi"
"AddFzi"
"AddMxi"
"AddMyi"
"AddMzi"
"M1N1STAxi"
"M1N2STAxi"
"M1N3STAxi"
"M2N1STAxi"
"M2N2STAxi"
"M2N3STAxi"
"M2N4STAxi"
"M2N5STAxi"
"M2N6STAxi"
"M2N7STAxi"
"M2N8STAxi"
"M2N9STAxi"
"M3N1STAxi"
"M3N2STAxi"
"M3N3STAxi"
"M3N4STAxi"
"M4N1STAxi"
"M4N2STAxi"
"M4N3STAxi"
"M1N1STAyi"
"M1N2STAyi"
"M1N3STAyi"
"M2N1STAyi"
"M2N2STAyi"
"M2N3STAyi"
"M2N4STAyi"
"M2N5STAyi"
"M2N6STAyi"
"M2N7STAyi"
"M2N8STAyi"
"M2N9STAyi"
"M3N1STAyi"
"M3N2STAyi"
"M3N3STAyi"
"M3N4STAyi"
"M4N1STAyi"
"M4N2STAyi"
"M4N3STAyi"
"M1N1STAzi"
"M1N2STAzi"
"M1N3STAzi"
"M2N1STAzi"
"M2N2STAzi"
"M2N3STAzi"
"M2N4STAzi"
"M2N5STAzi"
"M2N6STAzi"
"M2N7STAzi"
"M2N8STAzi"
"M2N9STAzi"
"M3N1STAzi"
"M3N2STAzi"
"M3N3STAzi"
"M3N4STAzi"
"M4N1STAzi"
"M4N2STAzi"
"M4N3STAzi"
"J1STAxi"
"J1STAyi"
"J1STAzi"
"J2STAxi"
"J2STAyi"
"J2STAzi"
"J3STAxi"
"J3STAyi"
"J3STAzi"
"J4STAxi"
"J4STAyi"
"J4STAzi"
"J5STAxi"
"J5STAyi"
"J5STAzi"
END of output channels and end of file. (the word "END" must appear in the first 3 columns of this line)
